-------------------------------------------------------
          Amber 20 PMEMD                              2020
          -------------------------------------------------------

  [-O]verwriting output

File Assignments:

 Here is the input file:

DNA+Ligand 303K 500ps
 &cntrl
  imin=0,
  ntx=5,
  irest=1,
  ntc=2,
  ntf=2,
  tol=0.0000001,
  nstlim=500000,
  ntt=3,
  gamma_ln=1.0,
  temp0=303.0,
  ntpr=2500,
  ntwr=2500,
  ntwx=2500,
  dt=0.002,
  ig=-1,
  ntb=2,
  ntp=2,
  cut=8.0,
  ioutfm=1,
  ntxo=2,
 /
 /
 &ewald
  skinnb=5,
 /

Note: ig = -1. Setting random seed to   510440 based on wallclock time in
      microseconds.

--------------------------------------------------------------------------------
   1.  RESOURCE   USE:
--------------------------------------------------------------------------------

 getting box info from netcdf restart file
 NATOM  =   16394 NTYPES =      31 NBONH =   15836 MBONA  =     579
 NTHETH =     677 MTHETA =     887 NPHIH =    1349 MPHIA  =    1689
 NHPARM =       0 NPARM  =       0 NNB   =   25232 NRES   =    5249
 NBONA  =     579 NTHETA =     887 NPHIA =    1689 NUMBND =      70
 NUMANG =     131 NPTRA  =      81 NATYP =      46 NPHB   =       1
 IFBOX  =       1 NMXRS  =      48 IFCAP =       0 NEXTRA =       0
 NCOPY  =       0

     BOX TYPE: RECTILINEAR

--------------------------------------------------------------------------------
   2.  CONTROL  DATA  FOR  THE  RUN
--------------------------------------------------------------------------------

default_name

General flags:
     imin    =       0, nmropt  =       0

Nature and format of input:
     ntx     =       5, irest   =       1, ntrx    =       1

Nature and format of output:
     ntxo    =       2, ntpr    =    2500, ntrx    =       1, ntwr    =    2500
     iwrap   =       0, ntwx    =    2500, ntwv    =       0, ntwe    =       0
     ioutfm  =       1, ntwprt  =       0, idecomp =       0, rbornstat=      0

Potential function:
     ntf     =       2, ntb     =       2, igb     =       0, nsnb    =      25
     ipol    =       0, gbsa    =       0, iesp    =       0
     dielc   =   1.00000, cut     =   8.00000, intdiel =   1.00000

Frozen or restrained atoms:
     ibelly  =       0, ntr     =       0

Molecular dynamics:
     nstlim  =    500000, nscm    =      1000, nrespa  =         1
     t       =   0.00000, dt      =   0.00200, vlimit  =  -1.00000

Langevin dynamics temperature regulation:
     ig      =  510440
     temp0   = 303.00000, tempi   =   0.00000, gamma_ln=   1.00000

Pressure regulation:
     ntp     =       2
     pres0   =   1.00000, comp    =  44.60000, taup    =   1.00000

SHAKE:
     ntc     =       2, jfastw  =       0
     tol     =   0.00000

Ewald parameters:
     verbose =       0, ew_type =       0, nbflag  =       1, use_pme =       1
     vdwmeth =       1, eedmeth =       1, netfrc  =       1
     Box X =   49.811   Box Y =   52.619   Box Z =   65.863
     Alpha =   90.000   Beta  =   90.000   Gamma =   90.000
     NFFT1 =   56       NFFT2 =   56       NFFT3 =   64
     Cutoff=    8.000   Tol   =0.100E-04
     Ewald Coefficient =  0.34864
     Interpolation order =    4

--------------------------------------------------------------------------------
   3.  ATOMIC COORDINATES AND VELOCITIES
--------------------------------------------------------------------------------

default_name
 begin time read from input coords =    25.000 ps

 Number of triangulated 3-point waters found:     5182

     Sum of charges from parm topology file =   0.00000014
     Forcing neutrality...

--------------------------------------------------------------------------------
   4.  RESULTS
 NSTEP =     2500   TIME(PS) =      30.000  TEMP(K) =   301.40  PRESS =   -21.7
 Etot   =    -48131.7640  EKtot   =      9986.1416  EPtot      =    -58117.9056
 BOND   =       218.2076  ANGLE   =       473.5863  DIHED      =       628.6967
 1-4 NB =       181.0511  1-4 EEL =     -3243.8101  VDWAALS    =      6916.6644
 EELEC  =    -63292.3016  EHBOND  =         0.0000  RESTRAINT  =         0.0000
 EKCMT  =      4676.9752  VIRIAL  =      4755.2451  VOLUME     =    167141.6898
                                                    Density    =         1.0196
 ------------------------------------------------------------------------------

      A V E R A G E S   O V E R     200 S T E P S

 NSTEP =   500000   TIME(PS) =    1025.000  TEMP(K) =   302.92  PRESS =   -10.1
 Etot   =    -48254.8403  EKtot   =     10036.5934  EPtot      =    -58291.4337
 BOND   =       218.8976  ANGLE   =       468.3503  DIHED      =       616.8365
 1-4 NB =       189.0142  1-4 EEL =     -3223.0816  VDWAALS    =      6913.0817
 EELEC  =    -63474.5323  EHBOND  =         0.0000  RESTRAINT  =         0.0000
 EKCMT  =      4734.9959  VIRIAL  =      4771.0865  VOLUME     =    165019.9170
                                                    Density    =         1.0327
 ------------------------------------------------------------------------------

      R M S  F L U C T U A T I O N S

 NSTEP =   500000   TIME(PS) =    1025.000  TEMP(K) =     2.13  PRESS =   160.5
 Etot   =       122.8716  EKtot   =        70.7358  EPtot      =       103.7841
 BOND   =        12.0548  ANGLE   =        14.3469  DIHED      =        10.7465
 1-4 NB =         4.9461  1-4 EEL =        17.0379  VDWAALS    =        93.9392
 EELEC  =       150.7295  EHBOND  =         0.0000  RESTRAINT  =         0.0000
 EKCMT  =        50.6846  VIRIAL  =       576.0765  VOLUME     =       364.5649
                                                    Density    =         0.0023
 ------------------------------------------------------------------------------
